1_source_data/network/Texas2k/Texas2k_series2025/Texas2k_series25_case1_summerpeak/Texas2k_series25_case1_summerpeak.EPC
title
!
comments
!
solution parameters
tap    1    tcul  enabled/disabled
phas   1    ps    enabled/disabled
area   1    area  enabled/disabled
svd    1    svd   enabled/disabled
dctap  1    dc    enabled/disabled
gcd    0    gcd   enabled/disabled
jump  0.000200    jumper threshold
toler   0.1000    newton tolerance
sbase 100.0000    system mva base
!
substation data  [ 1554]           no  name
      1  "ODESSA 2"    : 31.841400 -102.315000 0.000000  " "
      2  "PRESIDIO 2"    : 29.888046 -104.519139 0.000000  " "
      3  "O DONNELL 1"    : 32.926389 -101.647778 0.000000  " "
      4  "BIG SPRING 5"    : 32.240278 -101.473611 0.000000  " "
      5  "VAN HORN"    : 31.093480 -104.624514 0.000000  " "
      6  "IRAAN 2"    : 30.976638 -102.257753 0.000000  " "
      7  "PRESIDIO 1"    : 29.600000 -104.300000 0.000000  " "
      8  "SANDERSON"    : 30.028067 -101.970461 0.000000  " "
      9  "MONAHANS 2"    : 31.484586 -103.161046 0.000000  " "
     10  "GRANDFALLS"    : 31.165245 -103.125868 0.000000  " "
     11  "MARFA"    : 30.285296 -104.005761 0.000000  " "
     12  "GARDEN CITY"    : 31.743250 -101.493407 0.000000  " "
     13  "ODESSA 4"    : 31.725171 -102.413607 0.000000  " "
     14  "NOTREES"    : 31.799171 -102.632933 0.000000  " "
     15  "MIDLAND 4"    : 31.979427 -102.132366 0.000000  " "
     16  "BIG SPRING 1"    : 31.992500 -101.116700 0.000000  " "
     17  "O DONNELL 2"    : 32.929014 -101.578617 0.000000  " "
     18  "ODESSA 6"    : 32.001500 -102.633700 0.000000  " "
     19  "BIG SPRINGS"    : 32.039000 -101.220000 0.000000  " "
     20  "MIDLAND 2"    : 32.321673 -102.042298 0.000000  " "
     21  "COAHOMA"    : 32.875073 -101.208955 0.000000  " "
     22  "MIDLAND 3"    : 31.992384 -102.081464 0.000000  " "
     23  "ALPINE"    : 29.802094 -103.222360 0.000000  " "
     24  "FORT DAVIS"    : 31.004969 -103.759065 0.000000  " "
     25  "MCCAMEY 1"    : 31.219444 -102.192220 0.000000  " "
     26  "BIG SPRING 4"    : 31.991442 -101.302637 0.000000  " "
     27  "CRANE"    : 31.104090 -102.606250 0.000000  " "
     28  "ODESSA 5"    : 31.799158 -102.474090 0.000000  " "
     29  "FORT STOCKTON 1"    : 30.772575 -102.505808 0.000000  " "
     30  "ANDREWS"    : 32.335729 -102.697303 0.000000  " "
     31  "FORSAN"    : 32.140800 -101.398600 0.000000  " "
     32  "BIG LAKE"    : 31.207988 -101.110787 0.000000  " "
     33  "MIDLAND 5"    : 32.053604 -102.201660 0.000000  " "
     34  "OZONA"    : 30.575618 -101.331239 0.000000  " "
     35  "MONAHANS 1"    : 31.583900 -102.963300 0.000000  " "
     36  "STANTON"    : 32.489818 -101.754488 0.000000  " "
     37  "ODONNELL"    : 32.927010 -101.764414 0.000000  " "
     38  "LENORAH"    : 32.235300 -101.836700 0.000000  " "
     39  "IRAAN 3"    : 30.884700 -101.920800 0.000000  " "
     40  "BIG SPRING 6"    : 32.273178 -101.422386 0.000000  " "
     41  "ODESSA 3"    : 32.001129 -102.312423 0.000000  " "
     42  "BIG SPRING 3"    : 32.100823 -101.451385 0.000000  " "
     43  "BIG SPRING 7"    : 32.121700 -101.385300 0.000000  " "
     44  "MIDLAND 1"    : 31.517628 -101.918007 0.000000  " "
     45  "IRAAN 1"    : 30.917800 -102.086700 0.000000  " "
     46  "ODESSA 1"    : 31.840300 -102.326400 0.000000  " "
     47  "FORT STOCKTON 2"    : 30.807272 -102.355628 0.000000  " "
     48  "FORT STOCKTON 3"    : 30.747459 -102.790792 0.000000  " "
     49  "BIG SPRING 2"    : 31.936100 -101.298300 0.000000  " "
     50  "KERMIT"    : 31.696251 -103.138992 0.000000  " "
     51  "PECOS"    : 31.803547 -103.599914 0.000000  " "
     52  "SHEFFIELD"    : 30.596998 -101.784530 0.000000  " "
     53  "MCCAMEY 2"    : 31.209200 -102.241700 0.000000  " "
     54  "LAMESA"    : 32.929648 -102.133506 0.000000  " "
     55  "GOLDSMITH"    : 31.995000 -102.828333 0.000000  " "
     56  "RALLS 2"    : 33.658671 -101.531037 0.000000  " "
     57  "PARIS 3"    : 33.632910 -95.390710 0.000000  " "
     58  "SAVOY"    : 33.628143 -96.367605 0.000000  " "
     59  "HONEY GROVE"    : 33.615167 -95.900109 0.000000  " "
     60  "MEMPHIS"    : 34.857258 -100.512868 0.000000  " "
     61  "IOWA PARK"    : 33.973297 -98.721096 0.000000  " "
     62  "VERNON 2"    : 33.915315 -99.740278 0.000000  " "
     63  "PANHANDLE 2"    : 35.238333 -101.310833 0.000000  " "
     64  "CHILDRESS"    : 34.447226 -100.809848 0.000000  " "
     65  "FORESTBURG"    : 33.471617 -97.445189 0.000000  " "
     66  "SHERMAN 3"    : 33.627623 -96.767394 0.000000  " "
     67  "PANHANDLE 4"    : 35.427500 -101.253056 0.000000  " "
     68  "WICHITA FALLS 6"    : 33.943784 -98.523064 0.000000  " "
     69  "PARIS 2"    : 33.696800 -95.557700 0.000000  " "
     70  "WICHITA FALLS 4"    : 33.864515 -98.491046 0.000000  " "
     71  "WHEELER"    : 35.830763 -100.765905 0.000000  " "
     72  "DEPORT"    : 33.481551 -95.269247 0.000000  " "
     73  "WICHITA FALLS 3"    : 34.004783 -98.388757 0.000000  " "
     74  "SILVERTON"    : 34.432267 -101.237233 0.000000  " "
     75  "BONHAM"    : 33.708311 -96.240654 0.000000  " "
     76  "MATADOR"    : 33.710684 -100.384217 0.000000  " "
     77  "ARTHUR CITY"    : 33.857868 -95.649137 0.000000  " "
     78  "LEONARD"    : 33.500378 -96.146489 0.000000  " "
     79  "GORDONVILLE"    : 33.830932 -96.839764 0.000000  " "
     80  "KNOX CITY"    : 33.431837 -99.853667 0.000000  " "
     81  "WICHITA FALLS 7"    : 33.894941 -98.543670 0.000000  " "
     82  "LINDSAY"    : 33.549150 -97.329580 0.000000  " "
     83  "ECTOR"    : 33.553520 -96.282897 0.000000  " "
     84  "SUNSET"    : 33.455991 -97.751818 0.000000  " "
     85  "CLARKSVILLE"    : 33.663063 -94.997258 0.000000  " "
     86  "PANHANDLE 3"    : 35.386038 -101.578572 0.000000  " "
     87  "SADLER"    : 33.737974 -96.839543 0.000000  " "
     88  "WHITESBORO"    : 33.743893 -96.936121 0.000000  " "
     89  "SHEPPARD AFB"    : 33.969523 -98.509016 0.000000  " "
     90  "POTTSBORO"    : 33.800717 -96.725989 0.000000  " "
     91  "BELLS"    : 33.623645 -96.427874 0.000000  " "
     92  "CROSBYTON"    : 33.752201 -100.967402 0.000000  " "
     93  "ELECTRA"    : 34.102943 -99.118746 0.000000  " "
     94  "PATTONVILLE"    : 33.391670 -95.425190 0.000000  " "
     95  "HENRIETTA"    : 33.758490 -98.202251 0.000000  " "
     96  "PANHANDLE 6"    : 34.900760 -100.994549 0.000000  " "
     97  "BOWIE"    : 33.520572 -97.956120 0.000000  " "
     98  "WICHITA FALLS 1"    : 33.913300 -98.493100 0.000000  " "
     99  "WHITE DEER"    : 35.478900 -101.243900 0.000000  " "
    100  "ROXTON"    : 33.576823 -95.809701 0.000000  " "
    101  "VERNON 1"    : 34.292913 -99.367734 0.000000  " "
    102  "DENISON 2"    : 33.818100 -96.569200 0.000000  " "
    103  "SUMNER"    : 33.745236 -95.744327 0.000000  " "
    104  "GAINESVILLE"    : 33.661583 -97.176350 0.000000  " "
    105  "ASPERMONT"    : 33.183064 -100.245133 0.000000  " "
    106  "WICHITA FALLS 5"    : 33.799085 -98.509840 0.000000  " "
    107  "WINDTHORST"    : 33.509722 -98.360833 0.000000  " "
    108  "HOWE"    : 33.450768 -96.742245 0.000000  " "
    109  "ARCHER 2"    : 33.493056 -98.581944 0.000000  " "
    110  "COLLINSVILLE"    : 33.537706 -96.906575 0.000000  " "
    111  "JAYTON"    : 32.967360 -100.564280 0.000000  " "
    112  "MUENSTER 1"    : 33.733006 -97.428406 0.000000  " "
    113  "PADUCAH"    : 33.994322 -100.287247 0.000000  " "
    114  "NOCONA"    : 33.793074 -97.963802 0.000000  " "
    115  "DODD CITY"    : 33.615539 -96.072156 0.000000  " "
    116  "WICHITA FALLS 2"    : 33.862500 -98.589400 0.000000  " "
    117  "MONTAGUE"    : 33.626904 -97.687873 0.000000  " "
    118  "SPUR"    : 33.341053 -100.714732 0.000000  " "
    119  "ARCHER 1"    : 33.495278 -98.500000 0.000000  " "
    120  "ANNONA"    : 33.498221 -94.890845 0.000000  " "
    121  "SEYMOUR"    : 33.578240 -99.192100 0.000000  " "
    122  "DENISON 1"    : 33.727126 -96.470794 0.000000  " "
    123  "PANHANDLE 5"    : 35.350300 -101.540000 0.000000  " "
    124  "RALLS 1"    : 33.713671 -101.433811 0.000000  " "
    125  "SHERMAN 1"    : 33.582573 -96.617893 0.000000  " "
    126  "WHITEWRIGHT"    : 33.498186 -96.378894 0.000000  " "
    127  "SHERMAN 2"    : 33.604131 -96.550405 0.000000  " "
    128  "ROCHESTER"    : 33.345366 -99.624257 0.000000  " "
    129  "BURKBURNETT"    : 34.103273 -98.622467 0.000000  " "
    130  "MUENSTER 2"    : 33.703851 -97.372009 0.000000  " "
    131  "ARCHER CITY"    : 33.527396 -98.884782 0.000000  " "
    132  "PETROLIA"    : 34.008308 -98.259320 0.000000  " "
    133  "PARIS 1"    : 33.630800 -95.590000 0.000000  " "
    134  "BAGWELL"    : 33.801868 -95.151966 0.000000  " "
    135  "TELEPHONE"    : 33.778716 -95.996823 0.000000  " "
    136  "PANHANDLE 1"    : 35.442778 -101.372778 0.000000  " "
    137  "VAN ALSTYNE"    : 33.435660 -96.549913 0.000000  " "
    138  "TIOGA"    : 33.464643 -96.892724 0.000000  " "
    139  "VALLEY VIEW"    : 33.458028 -97.128552 0.000000  " "
    140  "MIAMI"    : 35.653889 -100.538611 0.000000  " "
    141  "TRENTON"    : 33.439125 -96.311485 0.000000  " "
    142  "HASKELL"    : 33.186882 -99.595332 0.000000  " "
    143  "SAINT JO"    : 33.741367 -97.535329 0.000000  " "
    144  "KERRVILLE"    : 30.036701 -99.163039 0.000000  " "
    145  "SWEETWATER 4"    : 32.360600 -100.338900 0.000000  " "
    146  "LEAKEY"    : 29.644470 -99.682471 0.000000  " "
    147  "HAMLIN"    : 32.857004 -100.124032 0.000000  " "
    148  "MERKEL 3"    : 32.473621 -100.032723 0.000000  " "
    149  "COLEMAN"    : 31.736902 -99.567791 0.000000  " "
    150  "SONORA"    : 30.441414 -100.560620 0.000000  " "
    151  "CAMP WOOD"    : 29.674700 -100.078588 0.000000  " "
    152  "LLANO"    : 30.653746 -98.918266 0.000000  " "
    153  "WILLOW CITY"    : 30.437069 -98.708714 0.000000  " "
    154  "ABILENE 4"    : 32.335677 -99.667488 0.000000  " "
    155  "KINGSLAND"    : 30.731599 -98.385422 0.000000  " "
    156  "ROSCOE 6"    : 32.415212 -100.573539 0.000000  " "
    157  "BLACKWELL"    : 32.255978 -100.320309 0.000000  " "
    158  "CHRISTOVAL"    : 31.048557 -100.623114 0.000000  " "
    159  "LUEDERS"    : 32.783669 -99.720186 0.000000  " "
    160  "COLORADO CITY"    : 32.335800 -100.915600 0.000000  " "
    161  "STAMFORD"    : 32.940911 -99.850964 0.000000  " "
    162  "ELDORADO"    : 30.883539 -100.595464 0.000000  " "
    163  "SAN SABA"    : 31.157093 -98.763991 0.000000  " "
    164  "ABILENE 2"    : 32.625600 -99.492800 0.000000  " "
    165  "LOMETA"    : 31.257224 -98.376742 0.000000  " "
    166  "SAN ANGELO 1"    : 31.509720 -100.322075 0.000000  " "
    167  "TUSCOLA"    : 32.274081 -99.826041 0.000000  " "
    168  "ABILENE 7"    : 32.333551 -99.927724 0.000000  " "
    169  "SNYDER 1"    : 32.631073 -101.008494 0.000000  " "
    170  "CHEROKEE"    : 30.939820 -99.079893 0.000000  " "
    171  "RICHLAND SPRINGS"    : 31.548100 -99.187200 0.000000  " "
    172  "ROSCOE 2"    : 32.469400 -100.666400 0.000000  " "
    173  "BALLINGER"    : 31.738576 -99.934162 0.000000  " "
    174  "SILVER"    : 32.050000 -100.691700 0.000000  " "
    175  "ROSCOE 5"    : 32.312200 -100.530300 0.000000  " "
    176  "ANSON"    : 32.796921 -99.880885 0.000000  " "
    177  "DEL RIO"    : 29.837220 -101.212436 0.000000  " "
    178  "HUNT"    : 30.095115 -99.628211 0.000000  " "
    179  "WINGATE"    : 32.214024 -100.057120 0.000000  " "
    180  "STERLING CITY 1"    : 31.951958 -101.018936 0.000000  " "
    181  "ROSCOE 4"    : 32.199366 -100.491908 0.000000  " "
    182  "BRADY"    : 31.176951 -99.616412 0.000000  " "
    183  "TRENT 1"    : 32.430100 -100.235652 0.000000  " "
    184  "OVALO"    : 32.120249 -99.753027 0.000000  " "
    185  "NOLAN"    : 32.287800 -100.100000 0.000000  " "
    186  "MILES"    : 31.534768 -100.113803 0.000000  " "
    187  "BRACKETTVILLE 2"    : 29.234722 -100.209167 0.000000  " "
    188  "MASON"    : 30.843122 -99.570053 0.000000  " "
    189  "BRACKETTVILLE 3"    : 29.395621 -100.439985 0.000000  " "
    190  "ABILENE 6"    : 32.362783 -99.817314 0.000000  " "
    191  "HERMLEIGH"    : 32.588600 -100.672800 0.000000  " "
    192  "MERKEL 1"    : 32.318221 -100.176986 0.000000  " "
    193  "LORAINE 1"    : 32.437500 -100.744400 0.000000  " "
    194  "ABILENE 1"    : 32.514400 -99.656400 0.000000  " "
    195  "ROCKSPRINGS"    : 29.988092 -100.286076 0.000000  " "
    196  "MERKEL 2"    : 32.311556 -100.061589 0.000000  " "
    197  "FLUVANNA 2"    : 32.947930 -101.147784 0.000000  " "
    198  "DYESS AFB"    : 32.415823 -99.906230 0.000000  " "
    199  "HAWLEY"    : 32.630473 -99.830642 0.000000  " "
    200  "BUCHANAN DAM 2"    : 30.936768 -98.467066 0.000000  " "
...
bus data  [2751]               ty  vsched   volt     angle    ar zone  vmax   vmin   date_in date_out pid L own st  latitude  longitude island    sdmon   vmax1      vmin1      dvmax subst
   1001 "ODESSA 2 0  " 115.0000 " "  0  :  1 1.018428  1.018428  55.167917    1    1 1.1000 0.9000 19400101 21991231   0 0   1 0   0.000000   0.000000     0 0    1.10000    0.90000    0.00000 1 "ODESSA 2"     1 -1 " "  0  " " 
   1002 "PRESIDIO 2 0" 115.0000 " "  0  :  1 1.019060  1.019060  62.748804    1    1 1.1000 0.9000 19400101 21991231   0 0   1 0   0.000000   0.000000     0 0    1.10000    0.90000    0.00000 2 "PRESIDIO 2"     1 -1 " "  0  " " 
   1003 "O DONNELL ~1" 115.0000 " "  0  :  1 1.023946  1.023946  62.646079    1    1 1.1000 0.9000 19400101 21991231   0 0   1 0   0.000000   0.000000     0 0    1.10000    0.90000    0.00000 3 "O DONNELL 1"     1 -1 " "  0  " " 
   1004 "O DONNELL ~2" 230.0000 " "  0  :  1 1.024576  1.024576  59.653955    1    1 1.1000 0.9000 19400101 21991231   0 0   1 0   0.000000   0.000000     0 0    1.10000    0.90000    0.00000 3 "O DONNELL 1"     1 -1 " "  0  " " 
   1005 "BIG SPRING~9" 115.0000 " "  0  :  1 1.021110  1.021110  51.759179    1    1 1.1000 0.9000 19400101 21991231   0 0   1 0   0.000000   0.000000     0 0    1.10000    0.90000    0.00000 4 "BIG SPRING 5"     1 -1 " "  0  " " 
   1006 "BIG SPRIN~10"  13.8000 " "  0  :  2 1.040000 1.029262  53.640699    1    1 1.1000 0.9000 19400101 21991231   0 0   1 0   0.000000   0.000000     0 0    1.10000    0.90000    0.00000 4 "BIG SPRING 5"     1 -1 " "  0  " " 
   1007 "VAN HORN 0  " 115.0000 " "  0  :  1 1.030000 1.030000  63.751416    1    1 1.1000 0.9000 19400101 21991231   0 0   1 0   0.000000   0.000000     0 0    1.10000    0.90000    0.00000 5 "VAN HORN"     1 -1 " "  0  " " 
   1008 "IRAAN 2 0   " 115.0000 " "  0  :  2 1.040000 1.026948  75.646845    1    1 1.1000 0.9000 19400101 21991231   0 0   1 0   0.000000   0.000000     0 0    1.10000    0.90000    0.00000 6 "IRAAN 2"     1 -1 " "  0  " " 
   1009 "IRAAN 2 1   "  13.8000 " "  0  :  2 1.040000 1.026779  80.885775    1    1 1.1000 0.9000 19400101 21991231   0 0   1 0   0.000000   0.000000     0 0    1.10000    0.90000    0.00000 6 "IRAAN 2"     1 -1 " "  0  " " 
   1010 "PRESIDIO 1 0" 115.0000 " "  0  :  1 1.030000 1.030000  64.488409    1    1 1.1000 0.9000 19400101 21991231   0 0   1 0   0.000000   0.000000     0 0    1.10000    0.90000    0.00000 7 "PRESIDIO 1"     1 -1 " "  0  " " 
   1011 "PRESIDIO 1 1"  22.0000 " "  0  :  2 1.040000 1.030109  67.313409    1    1 1.1000 0.9000 19400101 21991231   0 0   1 0   0.000000   0.000000     0 0    1.10000    0.90000    0.00000 7 "PRESIDIO 1"     1 -1 " "  0  " " 
   1012 "SANDERSON 0 " 115.0000 " "  0  :  1 1.030000 1.017731  55.015839    1    1 1.1000 0.9000 19400101 21991231   0 0   1 0   0.000000   0.000000     0 0    1.10000    0.90000    0.00000 8 "SANDERSON"     1 -1 " "  0  " " 
   1013 "MONAHANS 2 0" 115.0000 " "  0  :  1 1.005420  1.005420  70.459069    1    1 1.1000 0.9000 19400101 21991231   0 0   1 0   0.000000   0.000000     0 0    1.10000    0.90000    0.00000 9 "MONAHANS 2"     1 -1 " "  0  " " 
   1014 "GRANDFALLS 0" 115.0000 " "  0  :  1 1.009753  1.009753  75.300731    1    1 1.1000 0.9000 19400101 21991231   0 0   1 0   0.000000   0.000000     0 0    1.10000    0.90000    0.00000 10 "GRANDFALLS"     1 -1 " "  0  " " 
   1015 "MARFA 0     " 115.0000 " "  0  :  1 1.032031  1.032031  63.482318    1    1 1.1000 0.9000 19400101 21991231   0 0   1 0   0.000000   0.000000     0 0    1.10000    0.90000    0.00000 11 "MARFA"     1 -1 " "  0  " " 
   1016 "GARDEN CIT~1" 115.0000 " "  0  :  1 1.030000 1.028542  57.494596    1    1 1.1000 0.9000 19400101 21991231   0 0   1 0   0.000000   0.000000     0 0    1.10000    0.90000    0.00000 12 "GARDEN CITY"     1 -1 " "  0  " " 
   1017 "ODESSA 4 0  " 115.0000 " "  0  :  1 1.017656  1.017656  55.593443    1    1 1.1000 0.9000 19400101 21991231   0 0   1 0   0.000000   0.000000     0 0    1.10000    0.90000    0.00000 13 "ODESSA 4"     1 -1 " "  0  " " 
   1018 "NOTREES 0   " 115.0000 " "  0  :  1 1.015850  1.015850  55.520838    1    1 1.1000 0.9000 19400101 21991231   0 0   1 0   0.000000   0.000000     0 0    1.10000    0.90000    0.00000 14 "NOTREES"     1 -1 " "  0  " " 
   1019 "MIDLAND 4 0 " 115.0000 " "  0  :  1 1.013651  1.013651  53.663705    1    1 1.1000 0.9000 19400101 21991231   0 0   1 0   0.000000   0.000000     0 0    1.10000    0.90000    0.00000 15 "MIDLAND 4"     1 -1 " "  0  " " 
   1020 "BIG SPRING~1" 115.0000 " "  0  :  1 1.030000 1.030000  49.782834    1    1 1.1000 0.9000 19400101 21991231   0 0   1 0   0.000000   0.000000     0 0    1.10000    0.90000    0.00000 16 "BIG SPRING 1"     1 -1 " "  0  " " 
   1021 "BIG SPRING~2"  13.8000 " "  0  :  2 1.040000 1.040000  55.574491    1    1 1.1000 0.9000 19400101 21991231   0 0   1 0   0.000000   0.000000     0 0    1.10000    0.90000    0.00000 16 "BIG SPRING 1"     1 -1 " "  0  " " 
   1022 "O DONNELL ~5" 115.0000 " "  0  :  1 1.032279  1.032279  65.236471    1    1 1.1000 0.9000 19400101 21991231   0 0   1 0   0.000000   0.000000     0 0    1.10000    0.90000    0.00000 17 "O DONNELL 2"     1 -1 " "  0  " " 
   1023 "O DONNELL ~6"  13.8000 " "  0  :  2 1.040000 1.040000  71.680495    1    1 1.1000 0.9000 19400101 21991231   0 0   1 0   0.000000   0.000000     0 0    1.10000    0.90000    0.00000 17 "O DONNELL 2"     1 -1 " "  0  " " 
   1024 "ODESSA 6 0  " 115.0000 " "  0  :  2 1.040000 1.013581  56.227174    1    1 1.1000 0.9000 19400101 21991231   0 0   1 0   0.000000   0.000000     0 0    1.10000    0.90000    0.00000 18 "ODESSA 6"     1 -1 " "  0  " " 
   1025 "BIG SPRIN~17" 115.0000 " "  0  :  1 1.023511  1.023511  50.982592    1    1 1.1000 0.9000 19400101 21991231   0 0   1 0   0.000000   0.000000     0 0    1.10000    0.90000    0.00000 19 "BIG SPRINGS"     1 -1 " "  0  " " 
   1026 "BIG SPRIN~18"  13.8000 " "  0  :  2 1.040000 1.040000  55.766073    1    1 1.1000 0.9000 19400101 21991231   0 0   1 0   0.000000   0.000000     0 0    1.10000    0.90000    0.00000 19 "BIG SPRINGS"     1 -1 " "  0  " " 
   1027 "MIDLAND 2 0 " 115.0000 " "  0  :  1 1.030000 1.016631  51.518985    1    1 1.1000 0.9000 19400101 21991231   0 0   1 0   0.000000   0.000000     0 0    1.10000    0.90000    0.00000 20 "MIDLAND 2"     1 -1 " "  0  " " 
   1028 "COAHOMA 0   " 115.0000 " "  0  :  1 1.032643  1.032643  66.657055    1    1 1.1000 0.9000 19400101 21991231   0 0   1 0   0.000000   0.000000     0 0    1.10000    0.90000    0.00000 21 "COAHOMA"     1 -1 " "  0  " " 
   1029 "MIDLAND 3 0 " 115.0000 " "  0  :  1 1.030000 1.012712  53.097015    1    1 1.1000 0.9000 19400101 21991231   0 0   1 0   0.000000   0.000000     0 0    1.10000    0.90000    0.00000 22 "MIDLAND 3"     1 -1 " "  0  " " 
   1030 "ALPINE 0    " 115.0000 " "  0  :  1 1.032423  1.032423  68.482942    1    1 1.1000 0.9000 19400101 21991231   0 0   1 0   0.000000   0.000000     0 0    1.10000    0.90000    0.00000 23 "ALPINE"     1 -1 " "  0  " " 
   1031 "FORT DAVIS 0" 115.0000 " "  0  :  1 1.013637  1.013637  66.393745    1    1 1.1000 0.9000 19400101 21991231   0 0   1 0   0.000000   0.000000     0 0    1.10000    0.90000    0.00000 24 "FORT DAVIS"     1 -1 " "  0  " " 
   1032 "MCCAMEY 1 0 " 115.0000 " "  0  :  1 1.012032  1.012032  69.830096    1    1 1.1000 0.9000 19400101 21991231   0 0   1 0   0.000000   0.000000     0 0    1.10000    0.90000    0.00000 25 "MCCAMEY 1"     1 -1 " "  0  " " 
   1033 "MCCAMEY 1 1 " 230.0000 " "  0  :  2 1.020000 1.019243  65.746540    1    1 1.1000 0.9000 19400101 21991231   0 0   1 0   0.000000   0.000000     0 0    1.10000    0.90000    0.00000 25 "MCCAMEY 1"     1 -1 " "  0  " " 
   1034 "BIG SPRING~7" 115.0000 " "  0  :  1 1.018471  1.018471  50.790626    1    1 1.1000 0.9000 19400101 21991231   0 0   1 0   0.000000   0.000000     0 0    1.10000    0.90000    0.00000 26 "BIG SPRING 4"     1 -1 " "  0  " " 
   1035 "BIG SPRING~8"  13.8000 " "  0  :  2 1.040000 1.028554  53.387072    1    1 1.1000 0.9000 19400101 21991231   0 0   1 0   0.000000   0.000000     0 0    1.10000    0.90000    0.00000 26 "BIG SPRING 4"     1 -1 " "  0  " " 
   1036 "CRANE 0     " 115.0000 " "  0  :  1 1.010615  1.010615  71.756805    1    1 1.1000 0.9000 19400101 21991231   0 0   1 0   0.000000   0.000000     0 0    1.10000    0.90000    0.00000 27 "CRANE"     1 -1 " "  0  " " 
   1037 "ODESSA 5 0  " 115.0000 " "  0  :  1 1.020000 1.020000  54.645250    1    1 1.1000 0.9000 19400101 21991231   0 0   1 0   0.000000   0.000000     0 0    1.10000    0.90000    0.00000 28 "ODESSA 5"     1 -1 " "  0  " " 
   1038 "FORT STOCK~1" 115.0000 " "  0  :  1 1.031281  1.031281  73.844371    1    1 1.1000 0.9000 19400101 21991231   0 0   1 0   0.000000   0.000000     0 0    1.10000    0.90000    0.00000 29 "FORT STOCKTON 1"     1 -1 " "  0  " " 
   1039 "FORT STOCK~2"  22.0000 " "  0  :  2 1.040000 1.040000  82.003673    1    1 1.1000 0.9000 19400101 21991231   0 0   1 0   0.000000   0.000000     0 0    1.10000    0.90000    0.00000 29 "FORT STOCKTON 1"     1 -1 " "  0  " " 
   1040 "ANDREWS 0   " 115.0000 " "  0  :  1 1.019616  1.019616  54.226520    1    1 1.1000 0.9000 19400101 21991231   0 0   1 0   0.000000   0.000000     0 0    1.10000    0.90000    0.00000 30 "ANDREWS"     1 -1 " "  0  " " 
   1041 "FORSAN 0    " 115.0000 " "  0  :  1 1.018216  1.018216  51.541908    1    1 1.1000 0.9000 19400101 21991231   0 0   1 0   0.000000   0.000000     0 0    1.10000    0.90000    0.00000 31 "FORSAN"     1 -1 " "  0  " " 
   1042 "FORSAN 1    "  13.8000 " "  0  :  2 1.040000 1.040000  58.211955    1    1 1.1000 0.9000 19400101 21991231   0 0   1 0   0.000000   0.000000     0 0    1.10000    0.90000    0.00000 31 "FORSAN"     1 -1 " "  0  " " 
   1044 "BIG LAKE 0  " 115.0000 " "  0  :  1 1.018346  1.018346  56.244803    1    1 1.1000 0.9000 19400101 21991231   0 0   1 0   0.000000   0.000000     0 0    1.10000    0.90000    0.00000 32 "BIG LAKE"     1 -1 " "  0  " " 
   1045 "MIDLAND 5 0 " 115.0000 " "  0  :  1 1.008976  1.008976  53.716767    1    1 1.1000 0.9000 19400101 21991231   0 0   1 0   0.000000   0.000000     0 0    1.10000    0.90000    0.00000 33 "MIDLAND 5"     1 -1 " "  0  " " 
   1046 "OZONA 0     " 115.0000 " "  0  :  1 1.030000 1.027868  62.256154    1    1 1.1000 0.9000 19400101 21991231   0 0   1 0   0.000000   0.000000     0 0    1.10000    0.90000    0.00000 34 "OZONA"     1 -1 " "  0  " " 
   1047 "MONAHANS 1 0" 115.0000 " "  0  :  1 1.040000 1.040000  65.826608    1    1 1.1000 0.9000 19400101 21991231   0 0   1 0   0.000000   0.000000     0 0    1.10000    0.90000    0.00000 35 "MONAHANS 1"     1 -1 " "  0  " " 
   1048 "MONAHANS 1 1"  18.0000 " "  0  :  2 1.040000 1.040000  73.584764    1    1 1.1000 0.9000 19400101 21991231   0 0   1 0   0.000000   0.000000     0 0    1.10000    0.90000    0.00000 35 "MONAHANS 1"     1 -1 " "  0  " " 
   1049 "MONAHANS 1 2"  18.0000 " "  0  :  2 1.040000 1.040000  68.983721    1    1 1.1000 0.9000 19400101 21991231   0 0   1 0   0.000000   0.000000     0 0    1.10000    0.90000    0.00000 35 "MONAHANS 1"     1 -1 " "  0  " " 
   1050 "MONAHANS 1 3"  18.0000 " "  0  :  2 1.040000 1.040000  70.105623    1    1 1.1000 0.9000 19400101 21991231   0 0   1 0   0.000000   0.000000     0 0    1.10000    0.90000    0.00000 35 "MONAHANS 1"     1 -1 " "  0  " " 
   1051 "MONAHANS 1 4"  18.0000 " "  0  :  2 1.040000 1.040000  71.520921    1    1 1.1000 0.9000 19400101 21991231   0 0   1 0   0.000000   0.000000     0 0    1.10000    0.90000    0.00000 35 "MONAHANS 1"     1 -1 " "  0  " " 
   1052 "MONAHANS 1 5"  18.0000 " "  0  :  2 1.040000 1.040000  74.195266    1    1 1.1000 0.9000 19400101 21991231   0 0   1 0   0.000000   0.000000     0 0    1.10000    0.90000    0.00000 35 "MONAHANS 1"     1 -1 " "  0  " " 
   1053 "MONAHANS 1 6" 230.0000 " "  0  :  1 1.016127  1.016127  62.772855    1    1 1.1000 0.9000 19400101 21991231   0 0   1 0   0.000000   0.000000     0 0    1.10000    0.90000    0.00000 35 "MONAHANS 1"     1 -1 " "  0  " " 
   1054 "STANTON 0   " 115.0000 " "  0  :  1 1.024062  1.024062  56.698009    1    1 1.1000 0.9000 19400101 21991231   0 0   1 0   0.000000   0.000000     0 0    1.10000    0.90000    0.00000 36 "STANTON"     1 -1 " "  0  " " 
   1055 "ODONNELL 0  " 115.0000 " "  0  :  1 1.013775  1.013775  61.568831    1    1 1.1000 0.9000 19400101 21991231   0 0   1 0   0.000000   0.000000     0 0    1.10000    0.90000    0.00000 37 "ODONNELL"     1 -1 " "  0  " " 
   1056 "LENORAH 0   " 115.0000 " "  0  :  1 1.030000 1.030000  53.569895    1    1 1.1000 0.9000 19400101 21991231   0 0   1 0   0.000000   0.000000     0 0    1.10000    0.90000    0.00000 38 "LENORAH"     1 -1 " "  0  " " 
   1057 "LENORAH 1   "  18.0000 " "  0  :  2 1.040000 1.040000  61.078456    1    1 1.1000 0.9000 19400101 21991231   0 0   1 0   0.000000   0.000000     0 0    1.10000    0.90000    0.00000 38 "LENORAH"     1 -1 " "  0  " " 
   1058 "IRAAN 3 0   " 115.0000 " "  0  :  1 1.024077  1.024077  71.531699    1    1 1.1000 0.9000 19400101 21991231   0 0   1 0   0.000000   0.000000     0 0    1.10000    0.90000    0.00000 39 "IRAAN 3"     1 -1 " "  0  " " 
   1061 "BIG SPRIN~11" 115.0000 " "  0  :  1 1.018971  1.018971  51.570745    1    1 1.1000 0.9000 19400101 21991231   0 0   1 0   0.000000   0.000000     0 0    1.10000    0.90000    0.00000 40 "BIG SPRING 6"     1 -1 " "  0  " " 
   1062 "BIG SPRIN~12"  13.8000 " "  0  :  2 1.040000 1.040000  57.110954    1    1 1.1000 0.9000 19400101 21991231   0 0   1 0   0.000000   0.000000     0 0    1.10000    0.90000    0.00000 40 "BIG SPRING 6"     1 -1 " "  0  " " 
   1063 "BIG SPRIN~13"  13.8000 " "  0  :  2 1.040000 1.040000  58.180062    1    1 1.1000 0.9000 19400101 21991231   0 0   1 0   0.000000   0.000000     0 0    1.10000    0.90000    0.00000 40 "BIG SPRING 6"     1 -1 " "  0  " " 
   1064 "ODESSA 3 0  " 115.0000 " "  0  :  1 1.009238  1.009238  53.667473    1    1 1.1000 0.9000 19400101 21991231   0 0   1 0   0.000000   0.000000     0 0    1.10000    0.90000    0.00000 41 "ODESSA 3"     1 -1 " "  0  " " 
   1065 "BIG SPRING~5" 115.0000 " "  0  :  1 1.018356  1.018356  51.592172    1    1 1.1000 0.9000 19400101 21991231   0 0   1 0   0.000000   0.000000     0 0    1.10000    0.90000    0.00000 42 "BIG SPRING 3"     1 -1 " "  0  " " 
   1066 "BIG SPRING~6"  13.8000 " "  0  :  2 1.040000 1.040000  59.406509    1    1 1.1000 0.9000 19400101 21991231   0 0   1 0   0.000000   0.000000     0 0    1.10000    0.90000    0.00000 42 "BIG SPRING 3"     1 -1 " "  0  " " 
   1067 "BIG SPRIN~15" 115.0000 " "  0  :  2 1.040000 1.017524  51.375970    1    1 1.1000 0.9000 19400101 21991231   0 0   1 0   0.000000   0.000000     0 0    1.10000    0.90000    0.00000 43 "BIG SPRING 7"     1 -1 " "  0  " " 
   1068 "MIDLAND 1 0 " 115.0000 " "  0  :  1 1.020000 1.020000  58.903988    1    1 1.1000 0.9000 19400101 21991231   0 0   1 0   0.000000   0.000000     0 0    1.10000    0.90000    0.00000 44 "MIDLAND 1"     1 -1 " "  0  " " 
   1069 "IRAAN 1 0   " 115.0000 " "  0  :  1 1.024070  1.024070  74.092110    1    1 1.1000 0.9000 19400101 21991231   0 0   1 0   0.000000   0.000000     0 0    1.10000    0.90000    0.00000 45 "IRAAN 1"     1 -1 " "  0  " " 
   1070 "IRAAN 1 1   "  13.8000 " "  0  :  2 1.040000 1.024070  74.092110    1    1 1.1000 0.9000 19400101 21991231   0 0   1 0   0.000000   0.000000     0 0    1.10000    0.90000    0.00000 45 "IRAAN 1"     1 -1 " "  0  " " 
   1071 "ODESSA 1 0  " 115.0000 " "  0  :  1 1.017132  1.017132  54.795409    1    1 1.1000 0.9000 19400101 21991231   0 0   1 0   0.000000   0.000000     0 0    1.10000    0.90000    0.00000 46 "ODESSA 1"     1 -1 " "  0  " " 
   1072 "ODESSA 1 1  "  18.0000 " "  0  :  2 1.040000 1.040000  58.239237    1    1 1.1000 0.9000 19400101 21991231   0 0   1 0   0.000000   0.000000     0 0    1.10000    0.90000    0.00000 46 "ODESSA 1"     1 -1 " "  0  " " 
   1073 "ODESSA 1 2  "  18.0000 " "  0  :  2 1.040000 1.040000  55.834692    1    1 1.1000 0.9000 19400101 21991231   0 0   1 0   0.000000   0.000000     0 0    1.10000    0.90000    0.00000 46 "ODESSA 1"     1 -1 " "  0  " " 
   1074 "ODESSA 1 3  "  18.0000 " "  0  :  2 1.040000 1.040000  58.069074    1    1 1.1000 0.9000 19400101 21991231   0 0   1 0   0.000000   0.000000     0 0    1.10000    0.90000    0.00000 46 "ODESSA 1"     1 -1 " "  0  " " 
   1075 "ODESSA 1 4  "  18.0000 " "  0  :  2 1.040000 1.040000  57.611807    1    1 1.1000 0.9000 19400101 21991231   0 0   1 0   0.000000   0.000000     0 0    1.10000    0.90000    0.00000 46 "ODESSA 1"     1 -1 " "  0  " " 
   1076 "ODESSA 1 5  "  18.0000 " "  0  :  2 1.040000 1.040000  60.591089    1    1 1.1000 0.9000 19400101 21991231   0 0   1 0   0.000000   0.000000     0 0    1.10000    0.90000    0.00000 46 "ODESSA 1"     1 -1 " "  0  " " 
   1077 "ODESSA 1 6  "  18.0000 " "  0  :  2 1.040000 1.040000  56.508437    1    1 1.1000 0.9000 19400101 21991231   0 0   1 0   0.000000   0.000000     0 0    1.10000    0.90000    0.00000 46 "ODESSA 1"     1 -1 " "  0  " " 
   1079 "ODESSA 1 8  " 500.0000 " "  0  :  1 1.000246  1.000246  28.885068    1    1 1.1000 0.9000 19400101 21991231   0 0   1 0   0.000000   0.000000     0 0    1.10000    0.90000    0.00000 46 "ODESSA 1"     1 -1 " "  0  " " 
   1081 "ODESSA 1 10 " 230.0000 " "  0  :  1 1.040000 1.023220  56.689561    1    1 1.1000 0.9000 19400101 21991231   0 0   1 0   0.000000   0.000000     0 0    1.10000    0.90000    0.00000 46 "ODESSA 1"     1 -1 " "  0  " " 
   1082 "FORT STOCK~7" 115.0000 " "  0  :  1 1.025793  1.025793  73.901332    1    1 1.1000 0.9000 19400101 21991231   0 0   1 0   0.000000   0.000000     0 0    1.10000    0.90000    0.00000 47 "FORT STOCKTON 2"     1 -1 " "  0  " " 
   1083 "FORT STOCK~8" 115.0000 " "  0  :  1 1.030000 1.030000  73.051019    1    1 1.1000 0.9000 19400101 21991231   0 0   1 0   0.000000   0.000000     0 0    1.10000    0.90000    0.00000 48 "FORT STOCKTON 3"     1 -1 " "  0  " " 
   1084 "BIG SPRING~3" 115.0000 " "  0  :  1 1.015231  1.015231  49.585314    1    1 1.1000 0.9000 19400101 21991231   0 0   1 0   0.000000   0.000000     0 0    1.10000    0.90000    0.00000 49 "BIG SPRING 2"     1 -1 " "  0  " " 
   1085 "KERMIT 0    " 115.0000 " "  0  :  1 1.006161  1.006161  64.729206    1    1 1.1000 0.9000 19400101 21991231   0 0   1 0   0.000000   0.000000     0 0    1.10000    0.90000    0.00000 50 "KERMIT"     1 -1 " "  0  " " 
   1086 "PECOS 0     " 115.0000 " "  0  :  1 1.030000 1.007465  80.346276    1    1 1.1000 0.9000 19400101 21991231   0 0   1 0   0.000000   0.000000     0 0    1.10000    0.90000    0.00000 51 "PECOS"     1 -1 " "  0  " " 
   1087 "SHEFFIELD 0 " 115.0000 " "  0  :  1 1.030000 1.030000  66.665968    1    1 1.1000 0.9000 19400101 21991231   0 0   1 0   0.000000   0.000000     0 0    1.10000    0.90000    0.00000 52 "SHEFFIELD"     1 -1 " "  0  " " 
   1088 "MCCAMEY 2 0 " 115.0000 " "  0  :  1 1.010305  1.010305  68.478107    1    1 1.1000 0.9000 19400101 21991231   0 0   1 0   0.000000   0.000000     0 0    1.10000    0.90000    0.00000 53 "MCCAMEY 2"     1 -1 " "  0  " " 
   1089 "LAMESA 0    " 115.0000 " "  0  :  1 0.985734  0.985734  58.237956    1    1 1.1000 0.9000 19400101 21991231   0 0   1 0   0.000000   0.000000     0 0    1.10000    0.90000    0.00000 54 "LAMESA"     1 -1 " "  0  " " 
   1090 "GOLDSMITH 0 " 115.0000 " "  0  :  2 1.040000 1.018237  59.513772    1    1 1.1000 0.9000 19400101 21991231   0 0   1 0   0.000000   0.000000     0 0    1.10000    0.90000    0.00000 55 "GOLDSMITH"     1 -1 " "  0  " " 
   1091 "RALLS 2 0   " 161.0000 " "  0  :  1 1.030298  1.030298  55.411169    1    1 1.1000 0.9000 19400101 21991231   0 0   1 0   0.000000   0.000000     0 0    1.10000    0.90000    0.00000 56 "RALLS 2"     1 -1 " "  0  " " 
   1093 "IND W TWFV~3" 230.0000 " "  0  :  1 1.012424  1.012424  58.705541    1    1 1.1000 0.9000 19400101 21991231   0 0   1 0   0.000000   0.000000     0 0    1.10000    0.90000    0.00000 1251 "IND W TWFV 0"     1 -1 " "  0  " " 
   1094 "IND W TWFV~2" 115.0000 " "  0  :  1 0.994367  0.994367  61.764707    1    1 1.1000 0.9000 19400101 21991231   0 0   1 0   0.000000   0.000000     0 0    1.10000    0.90000    0.00000 1251 "IND W TWFV 0"     1 -1 " "  0  " " 
   1095 "IND W TWFV~6" 500.0000 " "  0  :  1 0.993761  0.993761  44.888853    1    1 1.1000 0.9000 19400101 21991231   0 0   1 0   0.000000   0.000000     0 0    1.10000    0.90000    0.00000 1252 "IND W TWFV 1"     1 -1 " "  0  " " 
   1096 "IND W TWFV~5" 230.0000 " "  0  :  1 1.040000 1.001974  48.685184    1    1 1.1000 0.9000 19400101 21991231   0 0   1 0   0.000000   0.000000     0 0    1.10000    0.90000    0.00000 1252 "IND W TWFV 1"     1 -1 " "  0  " " 
   1097 "IND W TWFV~4" 115.0000 " "  0  :  1 1.019667  1.019667  50.754273    1    1 1.1000 0.9000 19400101 21991231   0 0   1 0   0.000000   0.000000     0 0    1.10000    0.90000    0.00000 1252 "IND W TWFV 1"     1 -1 " "  0  " " 
   1099 "IND W TWF~29" 230.0000 " "  0  :  1 1.009406  1.009406  58.726628    1    1 1.1000 0.9000 19400101 21991231   0 0   1 0   0.000000   0.000000     0 0    1.10000    0.90000    0.00000 1253 "IND W TWFV 2"     1 -1 " "  0  " " 
   1100 "IND W TWF~28" 115.0000 " "  0  :  1 1.014938  1.014938  55.577875    1    1 1.1000 0.9000 19400101 21991231   0 0   1 0   0.000000   0.000000     0 0    1.10000    0.90000    0.00000 1253 "IND W TWFV 2"     1 -1 " "  0  " " 
   1101 "IND W TWF~32" 230.0000 " "  0  :  1 1.016139  1.016139  55.988705    1    1 1.1000 0.9000 19400101 21991231   0 0   1 0   0.000000   0.000000     0 0    1.10000    0.90000    0.00000 1254 "IND W TWFV 3"     1 -1 " "  0  " " 
   1102 "IND W TWF~31" 115.0000 " "  0  :  1 1.040000 1.040000  53.757130    1    1 1.1000 0.9000 19400101 21991231   0 0   1 0   0.000000   0.000000     0 0    1.10000    0.90000    0.00000 1254 "IND W TWFV 3"     1 -1 " "  0  " " 
   1103 "IND W TWF~34" 230.0000 " "  0  :  1 1.007816  1.007816  52.399824    1    1 1.1000 0.9000 19400101 21991231   0 0   1 0   0.000000   0.000000     0 0    1.10000    0.90000    0.00000 1255 "IND W TWFV 4"     1 -1 " "  0  " " 
   1104 "IND W TWF~33" 115.0000 " "  0  :  1 1.020000 1.014759  51.224909    1    1 1.1000 0.9000 19400101 21991231   0 0   1 0   0.000000   0.000000     0 0    1.10000    0.90000    0.00000 1255 "IND W TWFV 4"     1 -1 " "  0  " " 
   1105 "IND W TWF~36" 230.0000 " "  0  :  1 1.008084  1.008084  55.240591    1    1 1.1000 0.9000 19400101 21991231   0 0   1 0   0.000000   0.000000     0 0    1.10000    0.90000    0.00000 1256 "IND W TWFV 5"     1 -1 " "  0  " " 
   1106 "IND W TWF~35" 115.0000 " "  0  :  1 1.011082  1.011082  55.847608    1    1 1.1000 0.9000 19400101 21991231   0 0   1 0   0.000000   0.000000     0 0    1.10000    0.90000    0.00000 1256 "IND W TWFV 5"     1 -1 " "  0  " " 
   1107 "IND W TWF~38" 230.0000 " "  0  :  1 1.006114  1.006114  51.150553    1    1 1.1000 0.9000 19400101 21991231   0 0   1 0   0.000000   0.000000     0 0    1.10000    0.90000    0.00000 1257 "IND W TWFV 6"     1 -1 " "  0  " " 
   1108 "IND W TWF~37" 115.0000 " "  0  :  1 1.013837  1.013837  51.073180    1    1 1.1000 0.9000 19400101 21991231   0 0   1 0   0.000000   0.000000     0 0    1.10000    0.90000    0.00000 1257 "IND W TWFV 6"     1 -1 " "  0  " " 
   1109 "IND W TWF~40" 230.0000 " "  0  :  1 1.017183  1.017183  55.994306    1    1 1.1000 0.9000 19400101 21991231   0 0   1 0   0.000000   0.000000     0 0    1.10000    0.90000    0.00000 1258 "IND W TWFV 7"     1 -1 " "  0  " " 
   1110 "IND W TWF~39" 115.0000 " "  0  :  1 1.007996  1.007996  54.437762    1    1 1.1000 0.9000 19400101 21991231   0 0   1 0   0.000000   0.000000     0 0    1.10000    0.90000    0.00000 1258 "IND W TWFV 7"     1 -1 " "  0  " " 
   1111 "IND W TWF~42" 230.0000 " "  0  :  1 1.010604  1.010604  45.811982    1    1 1.1000 0.9000 19400101 21991231   0 0   1 0   0.000000   0.000000     0 0    1.10000    0.90000    0.00000 1259 "IND W TWFV 8"     1 -1 " "  0  " " 
   1112 "IND W TWF~41" 115.0000 " "  0  :  1 0.986721  0.986721  47.770816    1    1 1.1000 0.9000 19400101 21991231   0 0   1 0   0.000000   0.000000     0 0    1.10000    0.90000    0.00000 1259 "IND W TWFV 8"     1 -1 " "  0  " " 
   1113 "IND W TWF~45" 230.0000 " "  0  :  1 1.003053  1.003053  51.877485    1    1 1.1000 0.9000 19400101 21991231   0 0   1 0   0.000000   0.000000     0 0    1.10000    0.90000    0.00000 1260 "IND W TWFV 9"     1 -1 " "  0  " " 
   1114 "IND W TWF~44" 115.0000 " "  0  :  1 1.020000 1.017428  50.626398    1    1 1.1000 0.9000 19400101 21991231   0 0   1 0   0.000000   0.000000     0 0    1.10000    0.90000    0.00000 1260 "IND W TWFV 9"     1 -1 " "  0  " " 
   1115 "IND W TWFV~8" 230.0000 " "  0  :  1 1.040000 1.019857  54.885301    1    1 1.1000 0.9000 19400101 21991231   0 0   1 0   0.000000   0.000000     0 0    1.10000    0.90000    0.00000 1261 "IND W TWFV 10"     1 -1 " "  0  " " 
   1116 "IND W TWFV~7" 115.0000 " "  0  :  1 0.997986  0.997986  51.369548    1    1 1.1000 0.9000 19400101 21991231   0 0   1 0   0.000000   0.000000     0 0    1.10000    0.90000    0.00000 1261 "IND W TWFV 10"     1 -1 " "  0  " " 
   1117 "IND W TWF~10" 230.0000 " "  0  :  1 1.013280  1.013280  54.009466    1    1 1.1000 0.9000 19400101 21991231   0 0   1 0   0.000000   0.000000     0 0    1.10000    0.90000    0.00000 1262 "IND W TWFV 11"     1 -1 " "  0  " " 
   1118 "IND W TWFV~9" 115.0000 " "  0  :  1 1.006380  1.006380  51.362987    1    1 1.1000 0.9000 19400101 21991231   0 0   1 0   0.000000   0.000000     0 0    1.10000    0.90000    0.00000 1262 "IND W TWFV 11"     1 -1 " "  0  " " 
   1119 "IND W TWF~12" 230.0000 " "  0  :  1 1.007734  1.007734  49.156925    1    1 1.1000 0.9000 19400101 21991231   0 0   1 0   0.000000   0.000000     0 0    1.10000    0.90000    0.00000 1263 "IND W TWFV 12"     1 -1 " "  0  " " 
   1120 "IND W TWF~11" 115.0000 " "  0  :  1 1.012173  1.012173  50.871484    1    1 1.1000 0.9000 19400101 21991231   0 0   1 0   0.000000   0.000000     0 0    1.10000    0.90000    0.00000 1263 "IND W TWFV 12"     1 -1 " "  0  " " 
   1121 "IND W TWF~14" 230.0000 " "  0  :  1 1.008666  1.008666  53.463951    1    1 1.1000 0.9000 19400101 21991231   0 0   1 0   0.000000   0.000000     0 0    1.10000    0.90000    0.00000 1264 "IND W TWFV 13"     1 -1 " "  0  " " 
   1122 "IND W TWF~13" 115.0000 " "  0  :  1 1.002556  1.002556  50.972813    1    1 1.1000 0.9000 19400101 21991231   0 0   1 0   0.000000   0.000000     0 0    1.10000    0.90000    0.00000 1264 "IND W TWFV 13"     1 -1 " "  0  " " 
   1123 "IND W TWF~16" 230.0000 " "  0  :  1 1.003257  1.003257  51.946923    1    1 1.1000 0.9000 19400101 21991231   0 0   1 0   0.000000   0.000000     0 0    1.10000    0.90000    0.00000 1265 "IND W TWFV 14"     1 -1 " "  0  " " 
   1124 "IND W TWF~15" 115.0000 " "  0  :  1 1.013770  1.013770  50.632252    1    1 1.1000 0.9000 19400101 21991231   0 0   1 0   0.000000   0.000000     0 0    1.10000    0.90000    0.00000 1265 "IND W TWFV 14"     1 -1 " "  0  " " 
   1125 "IND W TWF~18" 230.0000 " "  0  :  1 1.014650  1.014650  57.159879    1    1 1.1000 0.9000 19400101 21991231   0 0   1 0   0.000000   0.000000     0 0    1.10000    0.90000    0.00000 1266 "IND W TWFV 15"     1 -1 " "  0  " " 
   1126 "IND W TWF~17" 115.0000 " "  0  :  1 1.006667  1.006667  58.178600    1    1 1.1000 0.9000 19400101 21991231   0 0   1 0   0.000000   0.000000     0 0    1.10000    0.90000    0.00000 1266 "IND W TWFV 15"     1 -1 " "  0  " " 
   1127 "IND W TWF~20" 230.0000 " "  0  :  1 1.011172  1.011172  54.180161    1    1 1.1000 0.9000 19400101 21991231   0 0   1 0   0.000000   0.000000     0 0    1.10000    0.90000    0.00000 1267 "IND W TWFV 16"     1 -1 " "  0  " " 
   1128 "IND W TWF~19" 115.0000 " "  0  :  1 1.040000 1.031978  54.323309    1    1 1.1000 0.9000 19400101 21991231   0 0   1 0   0.000000   0.000000     0 0    1.10000    0.90000    0.00000 1267 "IND W TWFV 16"     1 -1 " "  0  " " 
   1129 "IND W TWF~22" 230.0000 " "  0  :  1 1.019628  1.019628  56.461150    1    1 1.1000 0.9000 19400101 21991231   0 0   1 0   0.000000   0.000000     0 0    1.10000    0.90000    0.00000 1268 "IND W TWFV 17"     1 -1 " "  0  " " 
   1130 "IND W TWF~21" 115.0000 " "  0  :  1 1.015666  1.015666  54.777683    1    1 1.1000 0.9000 19400101 21991231   0 0   1 0   0.000000   0.000000     0 0    1.10000    0.90000    0.00000 1268 "IND W TWFV 17"     1 -1 " "  0  " " 
   1131 "IND W TWF~24" 230.0000 " "  0  :  1 1.010641  1.010641  53.901298    1    1 1.1000 0.9000 19400101 21991231   0 0   1 0   0.000000   0.000000     0 0    1.10000    0.90000    0.00000 1269 "IND W TWFV 18"     1 -1 " "  0  " " 
   1132 "IND W TWF~23" 115.0000 " "  0  :  1 1.019900  1.019900  52.684076    1    1 1.1000 0.9000 19400101 21991231   0 0   1 0   0.000000   0.000000     0 0    1.10000    0.90000    0.00000 1269 "IND W TWFV 18"     1 -1 " "  0  " " 
   1133 "IND W TWF~26" 230.0000 " "  0  :  1 1.005747  1.005747  51.467875    1    1 1.1000 0.9000 19400101 21991231   0 0   1 0   0.000000   0.000000     0 0    1.10000    0.90000    0.00000 1270 "IND W TWFV 19"     1 -1 " "  0  " " 
   1134 "IND W TWF~25" 115.0000 " "  0  :  1 1.016705  1.016705  51.288572    1    1 1.1000 0.9000 19400101 21991231   0 0   1 0   0.000000   0.000000     0 0    1.10000    0.90000    0.00000 1270 "IND W TWFV 19"     1 -1 " "  0  " " 
   2001 "PARIS 3 0   " 161.0000 " "  0  :  2 1.040000 1.013867  8.314643    2    1 1.1000 0.9000 19400101 21991231   0 0   1 0   0.000000   0.000000     0 0    1.10000    0.90000    0.00000 57 "PARIS 3"     2 -1 " "  0  " " 
   2002 "SAVOY 0     " 500.0000 " "  0  :  1 1.025978  1.025978  0.978221    2    1 1.1000 0.9000 19400101 21991231   0 0   1 0   0.000000   0.000000     0 0    1.10000    0.90000    0.00000 58 "SAVOY"     2 -1 " "  0  " " 
   2003 "SAVOY 1     " 161.0000 " "  0  :  1 1.018699  1.018699  0.045051    2    1 1.1000 0.9000 19400101 21991231   0 0   1 0   0.000000   0.000000     0 0    1.10000    0.90000    0.00000 58 "SAVOY"     2 -1 " "  0  " " 
   2007 "HONEY GROV~1" 161.0000 " "  0  :  1 1.014242  1.014242  5.465871    2    1 1.1000 0.9000 19400101 21991231   0 0   1 0   0.000000   0.000000     0 0    1.10000    0.90000    0.00000 59 "HONEY GROVE"     2 -1 " "  0  " " 
   2008 "MEMPHIS 0   " 161.0000 " "  0  :  1 1.039463  1.039463  59.250280    2    1 1.1000 0.9000 19400101 21991231   0 0   1 0   0.000000   0.000000     0 0    1.10000    0.90000    0.00000 60 "MEMPHIS"     2 -1 " "  0  " " 
   2009 "IOWA PARK 0 " 161.0000 " "  0  :  1 1.030000 1.025874  25.560079    2    1 1.1000 0.9000 19400101 21991231   0 0   1 0   0.000000   0.000000     0 0    1.10000    0.90000    0.00000 61 "IOWA PARK"     2 -1 " "  0  " " 
   2010 "VERNON 2 0  " 161.0000 " "  0  :  1 1.032135  1.032135  38.439020    2    1 1.1000 0.9000 19400101 21991231   0 0   1 0   0.000000   0.000000     0 0    1.10000    0.90000    0.00000 62 "VERNON 2"     2 -1 " "  0  " " 
   2011 "PANHANDLE ~3" 500.0000 " "  0  :  1 1.041883  1.041883  54.647729    2    1 1.1000 0.9000 19400101 21991231   0 0   1 0   0.000000   0.000000     0 0    1.10000    0.90000    0.00000 63 "PANHANDLE 2"     2 -1 " "  0  " " 
   2012 "PANHANDLE ~4" 161.0000 " "  0  :  1 1.040000 1.040000  59.200431    2    1 1.1000 0.9000 19400101 21991231   0 0   1 0   0.000000   0.000000     0 0    1.10000    0.90000    0.00000 63 "PANHANDLE 2"     2 -1 " "  0  " " 
   2013 "PANHANDLE ~5"  18.0000 " "  0  :  2 1.040000 1.040000  57.983812    2    1 1.1000 0.9000 19400101 21991231   0 0   1 0   0.000000   0.000000     0 0    1.10000    0.90000    0.00000 63 "PANHANDLE 2"     2 -1 " "  0  " " 
   2014 "CHILDRESS 0 " 161.0000 " "  0  :  1 1.036244  1.036244  57.701886    2    1 1.1000 0.9000 19400101 21991231   0 0   1 0   0.000000   0.000000     0 0    1.10000    0.90000    0.00000 64 "CHILDRESS"     2 -1 " "  0  " " 
   2015 "FORESTBURG 0" 161.0000 " "  0  :  1 1.016184  1.016184  3.066754    2    1 1.1000 0.9000 19400101 21991231   0 0   1 0   0.000000   0.000000     0 0    1.10000    0.90000    0.00000 65 "FORESTBURG"     2 -1 " "  0  " " 
   2016 "SHERMAN 3 0 " 161.0000 " "  0  :  1 1.018404  1.018404  -3.755410    2    1 1.1000 0.9000 19400101 21991231   0 0   1 0   0.000000   0.000000     0 0    1.10000    0.90000    0.00000 66 "SHERMAN 3"     2 -1 " "  0  " " 
   2017 "PANHANDLE ~8" 500.0000 " "  0  :  1 1.030000 1.039914  53.600176    2    1 1.1000 0.9000 19400101 21991231   0 0   1 0   0.000000   0.000000     0 0    1.10000    0.90000    0.00000 67 "PANHANDLE 4"     2 -1 " "  0  " " 
   2018 "PANHANDLE ~9" 161.0000 " "  0  :  1 1.032509  1.032509  56.985740    2    1 1.1000 0.9000 19400101 21991231   0 0   1 0   0.000000   0.000000     0 0    1.10000    0.90000    0.00000 67 "PANHANDLE 4"     2 -1 " "  0  " " 
   2019 "PANHANDLE~10"  20.0000 " "  0  :  2 1.040000 1.040000  57.286541    2    1 1.1000 0.9000 19400101 21991231   0 0   1 0   0.000000   0.000000     0 0    1.10000    0.90000    0.00000 67 "PANHANDLE 4"     2 -1 " "  0  " " 
   2020 "WICHITA F~10" 161.0000 " "  0  :  1 1.021641  1.021641  24.980946    2    1 1.1000 0.9000 19400101 21991231   0 0   1 0   0.000000   0.000000     0 0    1.10000    0.90000    0.00000 68 "WICHITA FALLS 6"     2 -1 " "  0  " " 
   2021 "PARIS 2 0   " 500.0000 " "  0  :  1 1.033041  1.033041  4.368816    2    1 1.1000 0.9000 19400101 21991231   0 0   1 0   0.000000   0.000000     0 0    1.10000    0.90000    0.00000 69 "PARIS 2"     2 -1 " "  0  " " 
   2022 "PARIS 2 1   " 161.0000 " "  0  :  1 1.021799  1.021799  7.192906    2    1 1.1000 0.9000 19400101 21991231   0 0   1 0   0.000000   0.000000     0 0    1.10000    0.90000    0.00000 69 "PARIS 2"     2 -1 " "  0  " " 
   2023 "PARIS 2 2   "  13.8000 " "  0  :  2 1.040000 1.040000  8.118911    2    1 1.1000 0.9000 19400101 21991231   0 0   1 0   0.000000   0.000000     0 0    1.10000    0.90000    0.00000 69 "PARIS 2"     2 -1 " "  0  " " 
   2024 "PARIS 2 3   "  13.8000 " "  0  :  2 1.040000 1.040000  9.227557    2    1 1.1000 0.9000 19400101 21991231   0 0   1 0   0.000000   0.000000     0 0    1.10000    0.90000    0.00000 69 "PARIS 2"     2 -1 " "  0  " " 
   2025 "WICHITA FA~8" 161.0000 " "  0  :  1 1.021629  1.021629  25.120768    2    1 1.1000 0.9000 19400101 21991231   0 0   1 0   0.000000   0.000000     0 0    1.10000    0.90000    0.00000 70 "WICHITA FALLS 4"     2 -1 " "  0  " " 
   2026 "WHEELER 0   " 161.0000 " "  0  :  1 1.025702  1.025702  52.923899    2    1 1.1000 0.9000 19400101 21991231   0 0   1 0   0.000000   0.000000     0 0    1.10000    0.90000    0.00000 71 "WHEELER"     2 -1 " "  0  " " 
   2027 "DEPORT 0    " 161.0000 " "  0  :  1 1.022457  1.022457  11.191387    2    1 1.1000 0.9000 19400101 21991231   0 0   1 0   0.000000   0.000000     0 0    1.10000    0.90000    0.00000 72 "DEPORT"     2 -1 " "  0  " " 
   2028 "WICHITA FA~7" 161.0000 " "  0  :  1 1.020776  1.020776  24.396043    2    1 1.1000 0.9000 19400101 21991231   0 0   1 0   0.000000   0.000000     0 0    1.10000    0.90000    0.00000 73 "WICHITA FALLS 3"     2 -1 " "  0  " " 
   2029 "SILVERTON 0 " 161.0000 " "  0  :  1 1.041773  1.041773  59.183586    2    1 1.1000 0.9000 19400101 21991231   0 0   1 0   0.000000   0.000000     0 0    1.10000    0.90000    0.00000 74 "SILVERTON"     2 -1 " "  0  " " 
   2030 "BONHAM 0    " 161.0000 " "  0  :  1 1.004634  1.004634  1.371233    2    1 1.1000 0.9000 19400101 21991231   0 0   1 0   0.000000   0.000000     0 0    1.10000    0.90000    0.00000 75 "BONHAM"     2 -1 " "  0  " " 
   2031 "MATADOR 0   " 161.0000 " "  0  :  1 1.028223  1.028223  52.231045    2    1 1.1000 0.9000 19400101 21991231   0 0   1 0   0.000000   0.000000     0 0    1.10000    0.90000    0.00000 76 "MATADOR"     2 -1 " "  0  " " 
   2032 "ARTHUR CIT~1" 161.0000 " "  0  :  1 1.016179  1.016179  5.887064    2    1 1.1000 0.9000 19400101 21991231   0 0   1 0   0.000000   0.000000     0 0    1.10000    0.90000    0.00000 77 "ARTHUR CITY"     2 -1 " "  0  " " 
   2033 "LEONARD 0   " 161.0000 " "  0  :  1 1.010792  1.010792  2.370850    2    1 1.1000 0.9000 19400101 21991231   0 0   1 0   0.000000   0.000000     0 0    1.10000    0.90000    0.00000 78 "LEONARD"     2 -1 " "  0  " " 
   2034 "GORDONVILL~1" 161.0000 " "  0  :  1 1.021595  1.021595  -2.094166    2    1 1.1000 0.9000 19400101 21991231   0 0   1 0   0.000000   0.000000     0 0    1.10000    0.90000    0.00000 79 "GORDONVILLE"     2 -1 " "  0  " " 
   2035 "KNOX CITY 0 " 161.0000 " "  0  :  1 1.025896  1.025896  38.429595    2    1 1.1000 0.9000 19400101 21991231   0 0   1 0   0.000000   0.000000     0 0    1.10000    0.90000    0.00000 80 "KNOX CITY"     2 -1 " "  0  " " 
   2036 "WICHITA F~11" 161.0000 " "  0  :  1 1.021713  1.021713  25.468043    2    1 1.1000 0.9000 19400101 21991231   0 0   1 0   0.000000   0.000000     0 0    1.10000    0.90000    0.00000 81 "WICHITA FALLS 7"     2 -1 " "  0  " " 
   2037 "LINDSAY 0   " 161.0000 " "  0  :  1 1.027720  1.027720  5.005527    2    1 1.1000 0.9000 19400101 21991231   0 0   1 0   0.000000   0.000000     0 0    1.10000    0.90000    0.00000 82 "LINDSAY"     2 -1 " "  0  " " 
   2038 "ECTOR 0     " 161.0000 " "  0  :  1 1.013326  1.013326  0.065207    2    1 1.1000 0.9000 19400101 21991231   0 0   1 0   0.000000   0.000000     0 0    1.10000    0.90000    0.00000 83 "ECTOR"     2 -1 " "  0  " " 
   2039 "SUNSET 0    " 161.0000 " "  0  :  1 1.004498  1.004498  6.599036    2    1 1.1000 0.9000 19400101 21991231   0 0   1 0   0.000000   0.000000     0 0    1.10000    0.90000    0.00000 84 "SUNSET"     2 -1 " "  0  " " 
   2040 "CLARKSVILL~1" 161.0000 " "  0  :  1 1.021437  1.021437  7.881581    2    1 1.1000 0.9000 19400101 21991231   0 0   1 0   0.000000   0.000000     0 0    1.10000    0.90000    0.00000 85 "CLARKSVILLE"     2 -1 " "  0  " " 
   2041 "PANHANDLE ~6" 161.0000 " "  0  :  1 1.042214  1.042214  61.094289    2    1 1.1000 0.9000 19400101 21991231   0 0   1 0   0.000000   0.000000     0 0    1.10000    0.90000    0.00000 86 "PANHANDLE 3"     2 -1 " "  0  " " 
   2042 "PANHANDLE ~7"  18.0000 " "  0  :  2 1.040000 1.040000  66.277720    2    1 1.1000 0.9000 19400101 21991231   0 0   1 0   0.000000   0.000000     0 0    1.10000    0.90000    0.00000 86 "PANHANDLE 3"     2 -1 " "  0  " " 
   2043 "SADLER 0    " 161.0000 " "  0  :  1 1.021365  1.021365  -2.087365    2    1 1.1000 0.9000 19400101 21991231   0 0   1 0   0.000000   0.000000     0 0    1.10000    0.90000    0.00000 87 "SADLER"     2 -1 " "  0  " " 
   2044 "WHITESBORO 0" 161.0000 " "  0  :  1 1.021279  1.021279  -1.429892    2    1 1.1000 0.9000 19400101 21991231   0 0   1 0   0.000000   0.000000     0 0    1.10000    0.90000    0.00000 88 "WHITESBORO"     2 -1 " "  0  " " 
   2045 "SHEPPARD A~1" 161.0000 " "  0  :  1 1.021378  1.021378  24.890512    2    1 1.1000 0.9000 19400101 21991231   0 0   1 0   0.000000   0.000000     0 0    1.10000    0.90000    0.00000 89 "SHEPPARD AFB"     2 -1 " "  0  " " 
   2046 "POTTSBORO 0 " 161.0000 " "  0  :  1 1.022366  1.022366  -2.028074    2    1 1.1000 0.9000 19400101 21991231   0 0   1 0   0.000000   0.000000     0 0    1.10000    0.90000    0.00000 90 "POTTSBORO"     2 -1 " "  0  " " 
   2047 "BELLS 0     " 161.0000 " "  0  :  1 1.019392  1.019392  -0.206275    2    1 1.1000 0.9000 19400101 21991231   0 0   1 0   0.000000   0.000000     0 0    1.10000    0.90000    0.00000 91 "BELLS"     2 -1 " "  0  " " 
   2048 "CROSBYTON 0 " 161.0000 " "  0  :  1 1.029260  1.029260  54.699710    2    1 1.1000 0.9000 19400101 21991231   0 0   1 0   0.000000   0.000000     0 0    1.10000    0.90000    0.00000 92 "CROSBYTON"     2 -1 " "  0  " " 
   2049 "ELECTRA 0   " 161.0000 " "  0  :  1 1.029217  1.029217  35.126828    2    1 1.1000 0.9000 19400101 21991231   0 0   1 0   0.000000   0.000000     0 0    1.10000    0.90000    0.00000 93 "ELECTRA"     2 -1 " "  0  " " 
   2050 "PATTONVILL~1" 161.0000 " "  0  :  1 1.020985  1.020985  12.068193    2    1 1.1000 0.9000 19400101 21991231   0 0   1 0   0.000000   0.000000     0 0    1.10000    0.90000    0.00000 94 "PATTONVILLE"     2 -1 " "  0  " " 
   2051 "HENRIETTA 0 " 161.0000 " "  0  :  1 1.020000 1.020000  15.053881    2    1 1.1000 0.9000 19400101 21991231   0 0   1 0   0.000000   0.000000     0 0    1.10000    0.90000    0.00000 95 "HENRIETTA"     2 -1 " "  0  " " 
   2052 "PANHANDLE~12" 161.0000 " "  0  :  1 1.035580  1.035580  58.327244    2    1 1.1000 0.9000 19400101 21991231   0 0   1 0   0.000000   0.000000     0 0    1.10000    0.90000    0.00000 96 "PANHANDLE 6"     2 -1 " "  0  " " 
   2053 "BOWIE 0     " 161.0000 " "  0  :  1 0.999989  0.999989  14.244720    2    1 1.1000 0.9000 19400101 21991231   0 0   1 0   0.000000   0.000000     0 0    1.10000    0.90000    0.00000 97 "BOWIE"     2 -1 " "  0  " " 
   2054 "WICHITA FA~1" 500.0000 " "  0  :  1 1.040000 1.023908  24.003773    2    1 1.1000 0.9000 19400101 21991231   0 0   1 0   0.000000   0.000000     0 0    1.10000    0.90000    0.00000 98 "WICHITA FALLS 1"     2 -1 " "  0  " " 
   2055 "WICHITA FA~2" 161.0000 " "  0  :  1 1.021403  1.021403  24.886476    2    1 1.1000 0.9000 19400101 21991231   0 0   1 0   0.000000   0.000000     0 0    1.10000    0.90000    0.00000 98 "WICHITA FALLS 1"     2 -1 " "  0  " " 
   2058 "WHITE DEER 0" 161.0000 " "  0  :  1 1.039281  1.039281  59.765193    2    1 1.1000 0.9000 19400101 21991231   0 0   1 0   0.000000   0.000000     0 0    1.10000    0.90000    0.00000 99 "WHITE DEER"     2 -1 " "  0  " " 
   2060 "ROXTON 0    " 161.0000 " "  0  :  1 1.013927  1.013927  5.600564    2    1 1.1000 0.9000 19400101 21991231   0 0   1 0   0.000000   0.000000     0 0    1.10000    0.90000    0.00000 100 "ROXTON"     2 -1 " "  0  " " 
   2061 "VERNON 1 0  " 161.0000 " "  0  :  1 1.038434  1.038434  41.869713    2    1 1.1000 0.9000 19400101 21991231   0 0   1 0   0.000000   0.000000     0 0    1.10000    0.90000    0.00000 101 "VERNON 1"     2 -1 " "  0  " " 
   2062 "VERNON 1 1  "  18.0000 " "  0  :  2 1.040000 1.040000  46.669496    2    1 1.1000 0.9000 19400101 21991231   0 0   1 0   0.000000   0.000000     0 0    1.10000    0.90000    0.00000 101 "VERNON 1"     2 -1 " "  0  " " 
   2063 "DENISON 2 0 " 161.0000 " "  0  :  2 1.030000 1.029989  -1.536356    2    1 1.1000 0.9000 19400101 21991231   0 0   1 0   0.000000   0.000000     0 0    1.10000    0.90000    0.00000 102 "DENISON 2"     2 -1 " "  0  " " 
   2064 "SUMNER 0    " 161.0000 " "  0  :  1 1.017397  1.017397  6.344765    2    1 1.1000 0.9000 19400101 21991231   0 0   1 0   0.000000   0.000000     0 0    1.10000    0.90000    0.00000 103 "SUMNER"     2 -1 " "  0  " " 
   2065 "GAINESVILL~1" 161.0000 " "  0  :  1 1.030000 1.030000  2.353251    2    1 1.1000 0.9000 19400101 21991231   0 0   1 0   0.000000   0.000000     0 0    1.10000    0.90000    0.00000 104 "GAINESVILLE"     2 -1 " "  0  " " 
   2066 "ASPERMONT 0 " 161.0000 " "  0  :  1 1.019820  1.019820  44.845241    2    1 1.1000 0.9000 19400101 21991231   0 0   1 0   0.000000   0.000000     0 0    1.10000    0.90000    0.00000 105 "ASPERMONT"     2 -1 " "  0  " " 
   2067 "WICHITA FA~9" 161.0000 " "  0  :  1 1.021427  1.021427  25.174332    2    1 1.1000 0.9000 19400101 21991231   0 0   1 0   0.000000   0.000000     0 0    1.10000    0.90000    0.00000 106 "WICHITA FALLS 5"     2 -1 " "  0  " " 
   2068 "WINDTHORST 0" 161.0000 " "  0  :  1 1.026443  1.026443  26.057572    2    1 1.1000 0.9000 19400101 21991231   0 0   1 0   0.000000   0.000000     0 0    1.10000    0.90000    0.00000 107 "WINDTHORST"     2 -1 " "  0  " " 
   2069 "HOWE 0      " 161.0000 " "  0  :  1 1.030000 1.030000  -4.758483    2    1 1.1000 0.9000 19400101 21991231   0 0   1 0   0.000000   0.000000     0 0    1.10000    0.90000    0.00000 108 "HOWE"     2 -1 " "  0  " " 
   2070 "ARCHER 2 0  " 161.0000 " "  0  :  1 1.024433  1.024433  25.706272    2    1 1.1000 0.9000 19400101 21991231   0 0   1 0   0.000000   0.000000     0 0    1.10000    0.90000    0.00000 109 "ARCHER 2"     2 -1 " "  0  " " 
   2071 "ARCHER 2 1  "  18.0000 " "  0  :  2 1.040000 1.040000  31.663532    2    1 1.1000 0.9000 19400101 21991231   0 0   1 0   0.000000   0.000000     0 0    1.10000    0.90000    0.00000 109 "ARCHER 2"     2 -1 " "  0  " " 
   2072 "COLLINSVIL~1" 161.0000 " "  0  :  1 1.021540  1.021540  -3.324158    2    1 1.1000 0.9000 19400101 21991231   0 0   1 0   0.000000   0.000000     0 0    1.10000    0.90000    0.00000 110 "COLLINSVILLE"     2 -1 " "  0  " " 
   2073 "JAYTON 0    " 161.0000 " "  0  :  1 1.024959  1.024959  50.158357    2    1 1.1000 0.9000 19400101 21991231   0 0   1 0   0.000000   0.000000     0 0    1.10000    0.90000    0.00000 111 "JAYTON"     2 -1 " "  0  " " 
   2074 "JAYTON 1    " 115.0000 " "  0  :  1 1.018291  1.018291  53.070184    2    1 1.1000 0.9000 19400101 21991231   0 0   1 0   0.000000   0.000000     0 0    1.10000    0.90000    0.00000 111 "JAYTON"     2 -1 " "  0  " " 
   2076 "JAYTON 3    "  24.0000 " "  0  :  2 1.040000 1.024959  50.158357    2    1 1.1000 0.9000 19400101 21991231   0 0   1 0   0.000000   0.000000     0 0    1.10000    0.90000    0.00000 111 "JAYTON"     2 -1 " "  0  " " 
   2077 "MUENSTER 1 0" 161.0000 " "  0  :  1 1.029619  1.029619  7.000559    2    1 1.1000 0.9000 19400101 21991231   0 0   1 0   0.000000   0.000000     0 0    1.10000    0.90000    0.00000 112 "MUENSTER 1"     2 -1 " "  0  " " 
   2078 "MUENSTER 1 1"  13.8000 " "  0  :  2 1.040000 1.040000  14.937308    2    1 1.1000 0.9000 19400101 21991231   0 0   1 0   0.000000   0.000000     0 0    1.10000    0.90000    0.00000 112 "MUENSTER 1"     2 -1 " "  0  " " 
   2079 "PADUCAH 0   " 161.0000 " "  0  :  1 1.022312  1.022312  44.905148    2    1 1.1000 0.9000 19400101 21991231   0 0   1 0   0.000000   0.000000     0 0    1.10000    0.90000    0.00000 113 "PADUCAH"     2 -1 " "  0  " " 
   2080 "NOCONA 0    " 161.0000 " "  0  :  1 1.014380  1.014380  10.838746    2    1 1.1000 0.9000 19400101 21991231   0 0   1 0   0.000000   0.000000     0 0    1.10000    0.90000    0.00000 114 "NOCONA"     2 -1 " "  0  " " 
...
branch data  [ 3993]                                          ck  se  ------------long_id_------------    st resist   react   charge   rate1  rate2  rate3  rate4 aloss  lngth 
   1001 "ODESSA 2 0  " 115.00    1064 "ODESSA 3 0  " 115.00  "1 "   1 " "  :  1  0.005240  0.035800  0.006090  221.0    0.0    0.0    0.0 0.000    0.0 /
   1    1  0.000000  0.000000  1.000000 19400101 21991231   0 1  0    0.0    0.0    0.0    0.0   1 1.000   0 0.000   0 0.000   0 0.000   0 0.000   0 0.000   0 0.000   0 0.000  0 0  0  0  0  90.000   0.000000  0.000000  " " 
   1001 "ODESSA 2 0  " 115.00    1064 "ODESSA 3 0  " 115.00  "2 "   1 " "  :  1  0.005240  0.035800  0.006090  221.0    0.0    0.0    0.0 0.000    0.0 /
   1    1  0.000000  0.000000  1.000000 19400101 21991231   0 1  0    0.0    0.0    0.0    0.0   1 1.000   0 0.000   0 0.000   0 0.000   0 0.000   0 0.000   0 0.000   0 0.000  0 0  0  0  0  90.000   0.000000  0.000000  " " 
   1001 "ODESSA 2 0  " 115.00    1071 "ODESSA 1 0  " 115.00  "1 "   1 " "  :  1  0.004350  0.028080  0.005360  221.0    0.0    0.0    0.0 0.000    0.0 /
...